bacteriochlorin
  PyMOL2.5          3D                             0

 44 48  0  0  0  0  0  0  0  0999 V2000
  149.1813  130.9958  150.0577 N   0  0  0  0  0  0  0  0  0  0  0  0
  153.4718  131.6582  148.3466 N   0  0  0  0  0  0  0  0  0  0  0  0
  149.4291  131.8883  150.9601 C   0  0  0  0  0  0  0  0  0  0  0  0
  154.2498  132.7056  148.6727 C   0  0  0  0  0  0  0  0  0  0  0  0
  149.5530  129.8104  150.5394 C   0  0  0  0  0  0  0  0  0  0  0  0
  154.2051  130.6875  147.8540 C   0  0  0  0  0  0  0  0  0  0  0  0
  149.2446  133.3459  150.7515 C   0  0  0  0  0  0  0  0  0  0  0  0
  153.9492  134.0060  149.2905 C   0  0  0  0  0  0  0  0  0  0  0  0
  149.5270  128.5437  149.8110 C   0  0  0  0  0  0  0  0  0  0  0  0
  153.7749  129.3529  147.3246 C   0  0  0  0  0  0  0  0  0  0  0  0
  150.8309  135.3579  150.7327 C   0  0  0  0  0  0  0  0  0  0  0  0
  152.1575  135.5237  150.3171 C   0  0  0  0  0  0  0  0  0  0  0  0
  151.2639  127.0356  148.7048 C   0  0  0  0  0  0  0  0  0  0  0  0
  152.4730  127.2720  148.0155 C   0  0  0  0  0  0  0  0  0  0  0  0
  150.5563  134.0086  150.4955 C   0  0  0  0  0  0  0  0  0  0  0  0
  152.5951  134.2731  149.8362 C   0  0  0  0  0  0  0  0  0  0  0  0
  150.8300  128.3149  149.0666 C   0  0  0  0  0  0  0  0  0  0  0  0
  152.6636  128.6824  148.0157 C   0  0  0  0  0  0  0  0  0  0  0  0
  151.6096  133.3933  149.9313 N   0  0  0  0  0  0  0  0  0  0  0  0
  151.6485  129.2619  148.6432 N   0  0  0  0  0  0  0  0  0  0  0  0
  149.9676  131.3153  152.1348 C   0  0  0  0  0  0  0  0  0  0  0  0
  155.5717  132.3676  148.3630 C   0  0  0  0  0  0  0  0  0  0  0  0
  150.0379  129.9604  151.8380 C   0  0  0  0  0  0  0  0  0  0  0  0
  155.5339  131.0732  147.8160 C   0  0  0  0  0  0  0  0  0  0  0  0
  148.7773  131.1671  149.1480 H   0  0  0  0  0  0  0  0  0  0  0  0
  152.4692  131.6236  148.4638 H   0  0  0  0  0  0  0  0  0  0  0  0
  148.8024  133.7766  151.6500 H   0  0  0  0  0  0  0  0  0  0  0  0
  148.5882  133.5061  149.8962 H   0  0  0  0  0  0  0  0  0  0  0  0
  154.0246  134.7029  148.4557 H   0  0  0  0  0  0  0  0  0  0  0  0
  154.6519  134.1338  150.1139 H   0  0  0  0  0  0  0  0  0  0  0  0
  148.7150  128.5787  149.0847 H   0  0  0  0  0  0  0  0  0  0  0  0
  149.3722  127.7287  150.5181 H   0  0  0  0  0  0  0  0  0  0  0  0
  154.6346  128.7002  147.4767 H   0  0  0  0  0  0  0  0  0  0  0  0
  153.4792  129.4916  146.2847 H   0  0  0  0  0  0  0  0  0  0  0  0
  150.1624  136.1120  151.1481 H   0  0  0  0  0  0  0  0  0  0  0  0
  152.7404  136.4439  150.3577 H   0  0  0  0  0  0  0  0  0  0  0  0
  150.7812  126.0796  148.9075 H   0  0  0  0  0  0  0  0  0  0  0  0
  153.1296  126.5236  147.5718 H   0  0  0  0  0  0  0  0  0  0  0  0
  151.6437  132.4292  149.6324 H   0  0  0  0  0  0  0  0  0  0  0  0
  151.5229  130.2554  148.7746 H   0  0  0  0  0  0  0  0  0  0  0  0
  150.2590  131.8185  153.0567 H   0  0  0  0  0  0  0  0  0  0  0  0
  156.4563  132.9859  148.5157 H   0  0  0  0  0  0  0  0  0  0  0  0
  150.4015  129.1684  152.4928 H   0  0  0  0  0  0  0  0  0  0  0  0
  156.3766  130.4931  147.4398 H   0  0  0  0  0  0  0  0  0  0  0  0
  1 25  1  0  0  0  0
  2  4  4  0  0  0  0
  2 26  1  0  0  0  0
  1  3  4  0  0  0  0
  3 21  4  0  0  0  0
  4  8  1  0  0  0  0
  1  5  4  0  0  0  0
  5  9  1  0  0  0  0
  2  6  4  0  0  0  0
  6 10  1  0  0  0  0
  3  7  1  0  0  0  0
  7 27  1  0  0  0  0
  7 28  1  0  0  0  0
  8 16  1  0  0  0  0
  8 29  1  0  0  0  0
  8 30  1  0  0  0  0
  9 17  1  0  0  0  0
  9 31  1  0  0  0  0
  9 32  1  0  0  0  0
 10 33  1  0  0  0  0
 10 34  1  0  0  0  0
 11 15  4  0  0  0  0
 11 35  1  0  0  0  0
 11 12  4  0  0  0  0
 12 36  1  0  0  0  0
 13 14  4  0  0  0  0
 13 37  1  0  0  0  0
 14 18  4  0  0  0  0
 14 38  1  0  0  0  0
  7 15  1  0  0  0  0
 15 19  4  0  0  0  0
 12 16  4  0  0  0  0
 16 19  4  0  0  0  0
 13 17  4  0  0  0  0
 17 20  4  0  0  0  0
 10 18  1  0  0  0  0
 18 20  4  0  0  0  0
 19 39  1  0  0  0  0
 20 40  1  0  0  0  0
 21 23  4  0  0  0  0
 21 41  1  0  0  0  0
  4 22  4  0  0  0  0
 22 24  4  0  0  0  0
 22 42  1  0  0  0  0
  5 23  4  0  0  0  0
 23 43  1  0  0  0  0
  6 24  4  0  0  0  0
 24 44  1  0  0  0  0
M  END
$$$$
