obj02
  PyMOL2.5          3D                             0

 29 33  0  0  0  0  0  0  0  0999 V2000
    0.4493    2.7747    6.9238 O   0  0  0  0  0  0  0  0  0  0  0  0
   -1.0882    9.9155   14.8897 N   0  0  0  0  0  0  0  0  0  0  0  0
    0.5181    6.4342   13.0309 N   0  0  0  0  0  0  0  0  0  0  0  0
    3.1107    8.0782   18.6249 O   0  0  0  0  0  0  0  0  0  0  0  0
    0.8325    7.9913   18.8129 O   0  0  0  0  0  0  0  0  0  0  0  0
   -0.5219    3.3705    7.2876 C   0  0  0  0  0  0  0  0  0  0  0  0
   -1.7446   10.8867   15.5475 C   0  0  0  0  0  0  0  0  0  0  0  0
   -1.7494    8.8160   14.4345 C   0  0  0  0  0  0  0  0  0  0  0  0
    0.1898    7.2471   14.0144 C   0  0  0  0  0  0  0  0  0  0  0  0
   -3.1091   10.7378   15.8454 C   0  0  0  0  0  0  0  0  0  0  0  0
   -3.0981    8.6510   14.6857 C   0  0  0  0  0  0  0  0  0  0  0  0
   -3.7642    9.6094   15.4520 C   0  0  0  0  0  0  0  0  0  0  0  0
    3.1598    7.7639   16.1855 C   0  0  0  0  0  0  0  0  0  0  0  0
   -1.5299    5.0820    8.8274 C   0  0  0  0  0  0  0  0  0  0  0  0
    0.5310    4.0194    9.4312 C   0  0  0  0  0  0  0  0  0  0  0  0
    2.3768    7.5389   15.0666 C   0  0  0  0  0  0  0  0  0  0  0  0
    0.3974    7.6419   16.4295 C   0  0  0  0  0  0  0  0  0  0  0  0
   -1.5048    5.8234   10.0116 C   0  0  0  0  0  0  0  0  0  0  0  0
    0.5516    4.7880   10.6199 C   0  0  0  0  0  0  0  0  0  0  0  0
    2.5763    7.8760   17.4282 C   0  0  0  0  0  0  0  0  0  0  0  0
    1.2054    7.8151   17.5383 C   0  0  0  0  0  0  0  0  0  0  0  0
   -0.5129    4.1826    8.5642 C   0  0  0  0  0  0  0  0  0  0  0  0
    0.9743    7.4932   15.1988 C   0  0  0  0  0  0  0  0  0  0  0  0
   -0.4533    5.6851   10.9144 C   0  0  0  0  0  0  0  0  0  0  0  0
   -0.4203    6.4556   12.1551 C   0  0  0  0  0  0  0  0  0  0  0  0
   -1.0045    7.8320   13.7092 C   0  0  0  0  0  0  0  0  0  0  0  0
   -1.6484    3.3224    6.5733 N   0  0  0  0  0  0  0  0  0  0  0  0
   -1.3671    7.3110   12.5330 N   0  0  0  0  0  0  0  0  0  0  0  0
    2.0229    8.1429   19.5321 C   0  0  0  0  0  0  0  0  0  0  0  0
  3  9  1  0  0  0  0
  5 29  1  0  0  0  0
  1  6  2  0  0  0  0
  6 22  1  0  0  0  0
  2  7  2  0  0  0  0
  2  8  1  0  0  0  0
  8 11  2  0  0  0  0
  9 23  1  0  0  0  0
  9 26  2  0  0  0  0
  7 10  1  0  0  0  0
 11 12  1  0  0  0  0
 10 12  2  0  0  0  0
 13 20  2  0  0  0  0
 14 18  2  0  0  0  0
 13 16  1  0  0  0  0
 18 24  1  0  0  0  0
 15 19  1  0  0  0  0
  4 20  1  0  0  0  0
 20 21  1  0  0  0  0
  5 21  1  0  0  0  0
 17 21  2  0  0  0  0
 14 22  1  0  0  0  0
 15 22  2  0  0  0  0
 16 23  2  0  0  0  0
 17 23  1  0  0  0  0
 19 24  2  0  0  0  0
 24 25  1  0  0  0  0
  3 25  1  0  0  0  0
 25 28  2  0  0  0  0
  8 26  1  0  0  0  0
 26 28  1  0  0  0  0
  6 27  1  0  0  0  0
  4 29  1  0  0  0  0
M  END
$$$$
